%Chk=CIX_large_mk.chk
%Mem=3000MB
%NProcShared=48
# B3LYP/genecp Integral=(Grid=UltraFine) Opt Pop(MK,ReadRadii)
IOp(6/33=2,6/42=6)
 
CLR
 
1  1
Pt     -1    0.363    0.126   -1.603
N      -1   -1.080   -0.055   -0.190
C      -1   -1.507    0.701    0.798
C      -1   -2.994   -0.960    0.461
C      -1   -2.734    0.139    1.254
O      -1   -1.976   -1.097   -0.383
C      -1   -4.107   -1.918    0.357
H       0   -3.800   -2.789   -0.236
H       0   -4.448   -2.226    1.354
H       0   -4.946   -1.415   -0.153
C      -1    1.298   -1.838    1.154
H       0    2.036   -2.620    1.378
H       0    0.651   -1.728    2.038
H       0    0.689   -2.136    0.291
N      -1   -3.573    0.644    2.285
O      -1   -3.152    1.572    2.967
O      -1   -4.675    0.125    2.435
N      -1    1.751    0.187   -0.172
C      -1    1.996   -0.558    0.887
C      -1    3.321    1.270    0.965
C      -1    3.003    0.110    1.642
O      -1    2.560    1.316   -0.128
C      -1    4.267    2.375    1.196
H       0    4.080    2.824    2.184
H       0    5.297    1.985    1.203
H       0    4.159    3.133    0.410
C      -1   -0.793    1.917    1.253
H       0   -0.432    1.773    2.283
H       0    0.054    2.146    0.596
H       0   -1.491    2.766    1.261
N      -1    3.586   -0.323    2.870
O      -1    3.153   -1.347    3.383
O      -1    4.488    0.360    3.343
Cl     -1    1.986    0.336   -3.255
H       0   -2.016    0.519   -2.641
O      -1   -1.116    0.112   -3.037
H       0   -1.336   -0.804   -3.283
 
H C O Cl N 0
6-31G*
****
Pt 0
SDD
****

Pt 0
SDD
 
Pt 1.219
 
Pt 1.219
 
 
